tags:
  - dynamic routes
  - controllers
  - rspec
  - capybara
  - mvc
languages:
  - ruby
type: 
  - readme
parent_template: git@github.com:learn-co-curriculum/phrg-rails-dynamic-request-readme.git
