I"ê/Users/kevinskilton/Learnco/Second%20Project/phrg-rails-dynamic-request-readme-pca-000/app/assets/javascripts/application.js?type=application/javascript&pipeline=self&id=3164132c2e51d01ecb69fe95782be870b8ce6772392c2ecf104ee27d4de40ef7:ET