I"Ü/Users/kevinskilton/Learnco/Second%20Project/phrg-rails-dynamic-request-readme-pca-000/app/assets/javascripts/application.js?type=application/javascript&id=10c77548fec114ae394ab5ef47c88a458bcdffa59d8a3da09b5e8cabc733bbed:ET