I"Ï/Users/kevinskilton/Learnco/Second%20Project/phrg-rails-dynamic-request-readme-pca-000/app/assets/stylesheets/application.css?type=text/css&id=70988588ff1bbe047992a8d787df310566aca7b5f44eaed5a164a2e1b36ad7e0:ET