I"Ý/Users/kevinskilton/Learnco/Second%20Project/phrg-rails-dynamic-request-readme-pca-000/app/assets/stylesheets/application.css?type=text/css&pipeline=self&id=da8805a4e287f1f66abb327b1649803f6e202c2e17d7110bedcc355999a3abba:ET